Using SPARSE 1.3 as Direct Linear Solver
Using SPARSE 1.3 as Direct Linear Solver

Note: No compatibility mode selected!


Circuit: simulation of the simple ota designed with the sekv model

Doing analysis at TEMP = 27.000000 and TNOM = 27.000000


No. of Data Rows : 1
Doing analysis at TEMP = 27.000000 and TNOM = 27.000000


No. of Data Rows : 41
voutq               =  6.191842e-01
vos                 =  -6.024841e-04
voutmax             =  6.847433e-01 at=  2.000000e-03
voutmin             =  5.622236e-01 at=  -2.000000e-03
Note: Simulation executed from .control section 
