Using SPARSE 1.3 as Direct Linear Solver
Using SPARSE 1.3 as Direct Linear Solver
Error: no data saved for Noise analysis; analysis not run

Note: No compatibility mode selected!


Circuit: simulation of the simple ota designed with the sekv model

Doing analysis at TEMP = 27.000000 and TNOM = 27.000000


No. of Data Rows : 1
Doing analysis at TEMP = 27.000000 and TNOM = 27.000000


No. of Data Rows : 288

No. of Data Rows : 1
ASCII raw file "./Simulations/ngspice/Gain/Simple_OTA.nz.raw"
Note: Simulation executed from .control section 
