Using SPARSE 1.3 as Direct Linear Solver
Using SPARSE 1.3 as Direct Linear Solver

Note: No compatibility mode selected!


Circuit: simulation of the simple ota designed with the sekv model

Doing analysis at TEMP = 27.000000 and TNOM = 27.000000


No. of Data Rows : 1
Doing analysis at TEMP = 27.000000 and TNOM = 27.000000


No. of Data Rows : 1201
voutq               =  6.191884e-01
vos                 =  -6.098103e-04
voutmax             =  1.199996e+00 at=  6.000000e-01
voutmin             =  1.728690e-01 at=  -6.000000e-01
Note: Simulation executed from .control section 
