Using SPARSE 1.3 as Direct Linear Solver
Using SPARSE 1.3 as Direct Linear Solver

Note: No compatibility mode selected!


Circuit: simulation of the cs stage designed with the corresponding jupyter notebook

Doing analysis at TEMP = 27.000000 and TNOM = 27.000000


No. of Data Rows : 1
ASCII raw file "./Simulations/nmos/Optimization for GBW/CS_GBW.ac.op"
Doing analysis at TEMP = 27.000000 and TNOM = 27.000000


No. of Data Rows : 607
adc                 =  2.732144e+01 at=  1.000000e+04
gbw                 =  1.023520e+08
fc                  =  4.296139e+06
fz                  =  6.474206e+08
Note: Simulation executed from .control section 
