Using SPARSE 1.3 as Direct Linear Solver
Using SPARSE 1.3 as Direct Linear Solver

Note: No compatibility mode selected!


Circuit: simulation of the cs stage designed with the corresponding jupyter notebook

Doing analysis at TEMP = 27.000000 and TNOM = 27.000000


No. of Data Rows : 1
ASCII raw file "./Simulations/nmos/Optimization for GBW and Adc/CS_GBW_Adc.ac.op"
Doing analysis at TEMP = 27.000000 and TNOM = 27.000000


No. of Data Rows : 607
adc                 =  2.522382e+01 at=  1.000000e+04
gbw                 =  9.841767e+07
fc                  =  5.340884e+06
fz                  =  1.286201e+09
Note: Simulation executed from .control section 
