Using SPARSE 1.3 as Direct Linear Solver
Note: vin: dc value used for op instead of transient time=0 value.
Note: Starting dynamic gmin stepping
Note: Dynamic gmin stepping completed
Using SPARSE 1.3 as Direct Linear Solver
Note: vin: dc value used for op instead of transient time=0 value.
Note: Starting dynamic gmin stepping
Note: Dynamic gmin stepping completed

Note: No compatibility mode selected!


Circuit: simulation of the symmetrical ota designed with the sekv model

Doing analysis at TEMP = 27.000000 and TNOM = 27.000000


No. of Data Rows : 1
ASCII raw file "./Simulations/ngspice/Follower/Symmetrical_OTA.ac.op"
Doing analysis at TEMP = 27.000000 and TNOM = 27.000000


No. of Data Rows : 288
fc                  =  9.555669e+05
Note: Simulation executed from .control section 
