Using SPARSE 1.3 as Direct Linear Solver

Note: No compatibility mode selected!


Circuit: OSDI PSP nMOS noise analysis

Doing analysis at TEMP = 27.000000 and TNOM = 27.000000


No. of Data Rows : 1

Node data saved to file ./Simulations/pmos/noise/noise.op.ic
Note: Simulation executed from .control section 
