Using SPARSE 1.3 as Direct Linear Solver
Using SPARSE 1.3 as Direct Linear Solver

Note: No compatibility mode selected!


Circuit: simulation of the symmetrical ota designed with the sekv model

Doing analysis at TEMP = 27.000000 and TNOM = 27.000000


No. of Data Rows : 1
ASCII raw file "./Simulations/ngspice/Gain/Symmetrical_OTA.ac.op"
Doing analysis at TEMP = 27.000000 and TNOM = 27.000000


No. of Data Rows : 288
adc                 =  7.206857e+01 at=  1.000000e+01
gbw                 =  1.037786e+06
pgbw                =  -9.577514e+01
Note: Simulation executed from .control section 
