Using SPARSE 1.3 as Direct Linear Solver
Using SPARSE 1.3 as Direct Linear Solver

Note: No compatibility mode selected!


Circuit: simulation of the symmetrical ota designed with the sekv model

Doing analysis at TEMP = 27.000000 and TNOM = 27.000000


No. of Data Rows : 1
Doing analysis at TEMP = 27.000000 and TNOM = 27.000000


No. of Data Rows : 601
vos                 =  7.113392e-04
voutmax             =  1.199987e+00 at=  6.000000e-01
voutmin             =  2.143857e-05 at=  -6.000000e-01
Note: Simulation executed from .control section 
