Using SPARSE 1.3 as Direct Linear Solver

Note: No compatibility mode selected!


Circuit: OSDI PSP nMOS ID-VD characteristic

Doing analysis at TEMP = 27.000000 and TNOM = 27.000000


No. of Data Rows : 201
Note: Simulation executed from .control section 
