Using SPARSE 1.3 as Direct Linear Solver
wrdata: too few args.

Note: No compatibility mode selected!


Circuit: simulation of the cs stage designed with the corresponding jupyter notebook

Doing analysis at TEMP = 27.000000 and TNOM = 27.000000


No. of Data Rows : 1

Node data saved to file ./Simulations/pmos/Optimization for GBW/cs_gbw.op.ic
Note: Simulation executed from .control section 
