Using SPARSE 1.3 as Direct Linear Solver

Note: No compatibility mode selected!


Circuit: OSDI PSP nMOS VP-VG characteristic

Doing analysis at TEMP = 27.000000 and TNOM = 27.000000


No. of Data Rows : 101
vt0                 =  4.082633e-01
Note: Simulation executed from .control section 
