Using SPARSE 1.3 as Direct Linear Solver
Note: Starting dynamic gmin stepping
Note: Dynamic gmin stepping completed

Note: No compatibility mode selected!


Circuit: simulation of the simple ota designed with the sekv model

Doing analysis at TEMP = 27.000000 and TNOM = 27.000000


No. of Data Rows : 1

Node data saved to file ./Simulations/ngspice/cascode_gain_stage.op.ic
Note: Simulation executed from .control section 
