Using SPARSE 1.3 as Direct Linear Solver
Using SPARSE 1.3 as Direct Linear Solver

Note: No compatibility mode selected!


Circuit: simulation of the miller ota designed with the sekv model

Doing analysis at TEMP = 27.000000 and TNOM = 27.000000


No. of Data Rows : 1
Doing analysis at TEMP = 27.000000 and TNOM = 27.000000


No. of Data Rows : 1001
vos                 =  -4.876700e-03
voutmax             =  1.082780e+00 at=  -4.600000e-03
voutmin             =  2.031860e-01 at=  -5.200000e-03
Note: Simulation executed from .control section 
