Using SPARSE 1.3 as Direct Linear Solver
Using SPARSE 1.3 as Direct Linear Solver

Note: No compatibility mode selected!


Circuit: simulation of the miller ota designed with the sekv model

Doing analysis at TEMP = 27.000000 and TNOM = 27.000000


No. of Data Rows : 1
Doing analysis at TEMP = 27.000000 and TNOM = 27.000000


No. of Data Rows : 601
vos                 =  -5.026295e-03
voutmax             =  1.191170e+00 at=  6.000000e-01
voutmin             =  3.587028e-06 at=  -6.000000e-01
Note: Simulation executed from .control section 
