Using SPARSE 1.3 as Direct Linear Solver
Using SPARSE 1.3 as Direct Linear Solver

Note: No compatibility mode selected!


Circuit: simulation of the miller ota designed with the sekv model

Doing analysis at TEMP = 27.000000 and TNOM = 27.000000


No. of Data Rows : 1
Doing analysis at TEMP = 27.000000 and TNOM = 27.000000


No. of Data Rows : 1001
vos                 =  -4.876683e-03
voutmax             =  1.176875e+00 at=  -2.387650e-16
voutmin             =  1.444891e-03 at=  -1.000000e-02
Note: Simulation executed from .control section 
