Using SPARSE 1.3 as Direct Linear Solver
Note: Starting dynamic gmin stepping
Note: Dynamic gmin stepping completed
Using SPARSE 1.3 as Direct Linear Solver
Note: Starting dynamic gmin stepping
Note: Dynamic gmin stepping completed
Error: no data saved for Noise analysis; analysis not run

Note: No compatibility mode selected!


Circuit: simulation of the folded cascode ota designed with the sekv model

Doing analysis at TEMP = 27.000000 and TNOM = 27.000000


No. of Data Rows : 1
Doing analysis at TEMP = 27.000000 and TNOM = 27.000000


No. of Data Rows : 329

No. of Data Rows : 1
ASCII raw file "./Simulations/ngspice/Gain/Folded_cascode_OTA.nz.raw"
Note: Simulation executed from .control section 
